
     RDKit          3D

 32 34  0  0  0  0  0  0  0  0999 V2000
   -0.8566   -2.0113   -0.7653 O   0  0  0  0  0  0  0  0  0  0  0  0
   -0.9652   -0.8394   -0.3112 C   0  0  0  0  0  0  0  0  0  0  0  0
    0.2839   -0.0921    0.0767 C   0  0  1  0  0  0  0  0  0  0  0  0
    0.6554   -0.3811    1.5429 C   0  0  0  0  0  0  0  0  0  0  0  0
    1.9418    0.1669    1.8416 O   0  0  0  0  0  0  0  0  0  0  0  0
    2.9844    0.1068    0.9116 C   0  0  0  0  0  0  0  0  0  0  0  0
    4.3007    0.3862    1.2917 C   0  0  0  0  0  0  0  0  0  0  0  0
    5.3318    0.2883    0.3503 C   0  0  0  0  0  0  0  0  0  0  0  0
    5.0459   -0.0857   -0.9685 C   0  0  0  0  0  0  0  0  0  0  0  0
    3.7265   -0.3512   -1.3527 C   0  0  0  0  0  0  0  0  0  0  0  0
    2.6945   -0.2394   -0.4159 C   0  0  0  0  0  0  0  0  0  0  0  0
    1.3650   -0.4686   -0.7837 O   0  0  0  0  0  0  0  0  0  0  0  0
   -2.2757   -0.2767   -0.1123 N   0  0  0  0  0  0  0  0  0  0  0  0
   -3.4947   -1.0351   -0.3332 C   0  0  0  0  0  0  0  0  0  0  0  0
   -4.6261   -0.1568    0.1830 C   0  0  0  0  0  0  0  0  0  0  0  0
   -4.0464    1.2505    0.2953 C   0  0  0  0  0  0  0  0  0  0  0  0
   -2.5336    1.0792    0.3441 C   0  0  0  0  0  0  0  0  0  0  0  0
    0.1290    1.0008   -0.0377 H   0  0  0  0  0  0  0  0  0  0  0  0
    0.6902   -1.4796    1.7121 H   0  0  0  0  0  0  0  0  0  0  0  0
   -0.0982    0.0581    2.2298 H   0  0  0  0  0  0  0  0  0  0  0  0
    4.5250    0.6644    2.3134 H   0  0  0  0  0  0  0  0  0  0  0  0
    6.3526    0.4971    0.6435 H   0  0  0  0  0  0  0  0  0  0  0  0
    5.8458   -0.1645   -1.6933 H   0  0  0  0  0  0  0  0  0  0  0  0
    3.5057   -0.6292   -2.3752 H   0  0  0  0  0  0  0  0  0  0  0  0
   -3.4622   -1.9955    0.2261 H   0  0  0  0  0  0  0  0  0  0  0  0
   -3.6178   -1.2339   -1.4199 H   0  0  0  0  0  0  0  0  0  0  0  0
   -5.5015   -0.1804   -0.5019 H   0  0  0  0  0  0  0  0  0  0  0  0
   -4.9415   -0.5085    1.1901 H   0  0  0  0  0  0  0  0  0  0  0  0
   -4.4241    1.7714    1.2019 H   0  0  0  0  0  0  0  0  0  0  0  0
   -4.3272    1.8392   -0.6059 H   0  0  0  0  0  0  0  0  0  0  0  0
   -2.0450    1.8169   -0.3284 H   0  0  0  0  0  0  0  0  0  0  0  0
   -2.1622    1.2032    1.3839 H   0  0  0  0  0  0  0  0  0  0  0  0
  1  2  2  0
  2  3  1  0
  3  4  1  0
  4  5  1  0
  5  6  1  0
  6  7  2  0
  7  8  1  0
  8  9  2  0
  9 10  1  0
 10 11  2  0
 11 12  1  0
  2 13  1  0
 13 14  1  0
 14 15  1  0
 15 16  1  0
 16 17  1  0
 12  3  1  0
 17 13  1  0
 11  6  1  0
  3 18  1  1
  4 19  1  0
  4 20  1  0
  7 21  1  0
  8 22  1  0
  9 23  1  0
 10 24  1  0
 14 25  1  0
 14 26  1  0
 15 27  1  0
 15 28  1  0
 16 29  1  0
 16 30  1  0
 17 31  1  0
 17 32  1  0
M  END
$$$$
